Circuit: * C:\Users\Slash\Documents\EPFL\DC-DC converter\Draft1.asc

Direct Newton iteration failed to find .op point.  (Use ".option noopiter" to skip.)
Starting Gmin stepping
Gmin = 10
Gmin = 1.07374
vernier = 0.5
vernier = 0.25
vernier = 0.125
Gmin = 1.15077
vernier = 0.166667
vernier = 0.0833333
vernier = 0.0416667
vernier = 0.0208333
Gmin = 1.00764
vernier = 0.0104167
vernier = 0.00520833
vernier = 0.00260417
Gmin = 0.999808
vernier = 0.00130208
vernier = 0.000651042
vernier = 0.000488281
Gmin = 0
Gmin stepping failed

Starting source stepping with srcstepmethod=0
Source Step = 3.0303%
Source Step = 33.3333%
Source Step = 63.6364%
Source Step = 88.6364%
vernier = 0.0625
Source Step = 87.8995%
Source Step = 87.9291%
Source Step = 87.9587%
Source Step = 87.9883%
Source Step = 88.0179%
Source Step = 88.0475%
vernier = 0.00146484
Source Step = 88.0919%
Source Step = 88.1362%
Source Step = 88.1806%
Source Step = 88.225%
Source Step = 88.2694%
vernier = 0.00219727
Source Step = 88.3338%
Source Step = 88.4004%
Source Step = 88.4669%
Source Step = 88.5335%
Source Step = 88.6001%
vernier = 0.0032959
Source Step = 88.6933%
Source Step = 88.7932%
Source Step = 88.8931%
Source Step = 88.993%
Source Step = 89.0928%
vernier = 0.00494385
Source Step = 89.2277%
Source Step = 89.3775%
Source Step = 89.5273%
Source Step = 89.6771%
Source Step = 89.8269%
vernier = 0.00741577
Source Step = 90.0217%
Source Step = 90.1565%
Source Step = 90.2127%
Source Step = 90.2689%
Source Step = 90.325%
Source Step = 90.3812%
Source Step = 90.4374%
vernier = 0.00278091
Source Step = 90.5104%
Source Step = 90.5947%
Source Step = 90.679%
Source Step = 90.7633%
Source Step = 90.8475%
vernier = 0.00417137
Source Step = 90.9529%
Source Step = 91.0793%
Source Step = 91.2057%
Source Step = 91.3321%
Source Step = 91.4585%
vernier = 0.00625706
Source Step = 91.6102%
Source Step = 91.7998%
Source Step = 91.9894%
Source Step = 92.179%
Source Step = 92.3686%
vernier = 0.00938559
Source Step = 92.5866%
Source Step = 92.8711%
Source Step = 93.1555%
Source Step = 93.4399%
Source Step = 93.7243%
vernier = 0.0140784
Source Step = 94.0371%
Source Step = 94.4638%
Source Step = 94.8904%
Source Step = 95.317%
Source Step = 95.7436%
vernier = 0.0211176
Source Step = 96.1916%
Source Step = 96.8315%
Source Step = 97.4714%
Source Step = 98.1113%
Source Step = 98.7513%
Source Step = 99.3912%
vernier = 0.0316764
Source stepping succeeded in finding the operating point.


Date: Sat Apr 25 15:23:18 2020
Total elapsed time: 2.498 seconds.

tnom = 27
temp = 27
method = modified trap
totiter = 8419
traniter = 2082
tranpoints = 1042
accept = 1042
rejected = 0
matrix size = 139
fillins = 339
solver = Normal
Thread vector: 45.0/28.2[3] 4.3/4.6[1] 12.0/8.1[3] 2.9/7.4[1]  2592/500
Matrix Compiler1: 21.98 KB object code size  20.4/8.5/[2.1]
Matrix Compiler2: 17.42 KB object code size  7.9/10.3/[3.7]

