Circuit: * C:\Users\Slash\Documents\EPFL\DC-DC converter\Draft1.asc

Limiting rise time of source v1 to 1.9984e-16
Limiting fall time of source v1 to 1.9984e-16
.OP point found by inspection.

Date: Mon Apr 13 12:39:59 2020
Total elapsed time: 0.063 seconds.

tnom = 27
temp = 27
method = modified trap
totiter = 2082
traniter = 2082
tranpoints = 1042
accept = 1042
rejected = 0
matrix size = 3
fillins = 0
solver = Normal
Matrix Compiler1: 50 bytes object code size  0.0/0.0/[0.0]
Matrix Compiler2: 175 bytes object code size  0.0/0.0/[0.0]

