Circuit: * C:\Users\Slash\Documents\EPFL\DC-DC converter\buck.asc

Limiting rise time of source v2 to 1.8105e-06
Limiting fall time of source v2 to 1.8105e-06
Direct Newton iteration for .op point succeeded.

Date: Thu Apr 16 16:13:53 2020
Total elapsed time: 1.025 seconds.

tnom = 27
temp = 27
method = modified trap
totiter = 369773
traniter = 369767
tranpoints = 106823
accept = 79407
rejected = 27416
matrix size = 11
fillins = 3
solver = Normal
Matrix Compiler1: 718 bytes object code size  0.2/0.1/[0.1]
Matrix Compiler2: 883 bytes object code size  0.1/0.1/[0.1]

