Circuit: * C:\Users\Slash\Documents\EPFL\DC-DC converter\Simulation\LTSpice\buck.asc

Limiting rise time of source v2 to 4e-07
Limiting fall time of source v2 to 4e-07
Direct Newton iteration for .op point succeeded.

Date: Wed May 13 18:35:35 2020
Total elapsed time: 3.365 seconds.

tnom = 27
temp = 27
method = modified trap
totiter = 1846003
traniter = 1845988
tranpoints = 542504
accept = 404725
rejected = 137779
matrix size = 12
fillins = 5
solver = Normal
Matrix Compiler1: 936 bytes object code size  0.2/0.1/[0.1]
Matrix Compiler2: off  [0.1]/0.1/0.1

