Circuit: * C:\Users\Slash\Documents\EPFL\DC-DC converter\Simulation\LTSpice\buck.asc

Limiting rise time of source v2 to 3.379e-007
Limiting fall time of source v2 to 3.379e-007
Direct Newton iteration for .op point succeeded.

Date: Sun Jun 07 16:42:43 2020
Total elapsed time: 6.176 seconds.

tnom = 27
temp = 27
method = modified trap
totiter = 1817851
traniter = 1817836
tranpoints = 528626
accept = 393879
rejected = 134747
matrix size = 12
fillins = 5
solver = Normal
Matrix Compiler1: 936 bytes object code size  0.3/0.2/[0.1]
Matrix Compiler2: 1.01 KB object code size  0.5/0.3/[0.2]

