Circuit: * C:\Users\Slash\Documents\EPFL\DC-DC converter\current_sensing.asc

Direct Newton iteration failed to find .op point.  (Use ".option noopiter" to skip.)
Starting Gmin stepping
Gmin = 10
Gmin = 1.07374
vernier = 0.5
vernier = 0.25
vernier = 0.125
Gmin = 1.15077
vernier = 0.166667
vernier = 0.0833333
vernier = 0.0416667
vernier = 0.0208333
Gmin = 1.00764
vernier = 0.0104167
vernier = 0.00520833
vernier = 0.00260417
Gmin = 0.999808
vernier = 0.00130208
vernier = 0.000651042
vernier = 0.000488281
Gmin = 0
Gmin stepping failed

Starting source stepping with srcstepmethod=0
Source Step = 3.0303%
Source Step = 33.3333%
Source Step = 63.6364%
Source Step = 88.6364%
vernier = 0.0625
Source Step = 87.8995%
Source Step = 87.9291%
Source Step = 87.9587%
Source Step = 87.9883%
Source Step = 88.0179%
Source Step = 88.0475%
vernier = 0.00146484
Source Step = 88.0919%
Source Step = 88.1362%
Source Step = 88.1806%
Source Step = 88.225%
Source Step = 88.2694%
vernier = 0.00219727
Source Step = 88.3338%
Source Step = 88.4004%
Source Step = 88.4669%
Source Step = 88.5335%
Source Step = 88.6001%
vernier = 0.0032959
Source Step = 88.6933%
Source Step = 88.7932%
Source Step = 88.8931%
Source Step = 88.993%
Source Step = 89.0928%
vernier = 0.00494385
Source Step = 89.2277%
Source Step = 89.3775%
Source Step = 89.5273%
Source Step = 89.6771%
Source Step = 89.8269%
vernier = 0.00741577
Source Step = 90.0217%
Source Step = 90.1734%
Source Step = 90.2295%
Source Step = 90.2857%
Source Step = 90.3419%
Source Step = 90.3981%
Source Step = 90.4543%
Source Step = 90.5104%
Source Step = 90.5666%
vernier = 0.00278091
Source Step = 90.6256%
Source Step = 90.7099%
Source Step = 90.7942%
Source Step = 90.8784%
Source Step = 90.9627%
Source Step = 91.047%
vernier = 0.00417137
Source Step = 91.1734%
Source Step = 91.2998%
Source Step = 91.4262%
Source Step = 91.5526%
Source Step = 91.679%
vernier = 0.00625706
Source Step = 91.8623%
Source Step = 92.0519%
Source Step = 92.2415%
Source Step = 92.4311%
Source Step = 92.6207%
vernier = 0.00938559
Source Step = 92.8862%
Source Step = 93.1706%
Source Step = 93.455%
Source Step = 93.7394%
Source Step = 94.0238%
vernier = 0.0140784
Source Step = 94.4078%
Source Step = 94.8344%
Source Step = 95.261%
Source Step = 95.6876%
Source Step = 96.1142%
vernier = 0.0211176
Source Step = 96.6688%
Source Step = 97.3088%
Source Step = 97.9487%
Source Step = 98.5886%
Source Step = 99.2285%
vernier = 0.0316764
Source Step = 100%
Source stepping succeeded in finding the operating point.


Date: Wed Apr 29 19:56:19 2020
Total elapsed time: 2.757 seconds.

tnom = 27
temp = 27
method = modified trap
totiter = 10172
traniter = 2082
tranpoints = 1042
accept = 1042
rejected = 0
matrix size = 139
fillins = 339
solver = Normal
Thread vector: 11.5/7.7[3] 2.4/3.5[1] 3.4/2.4[3] 0.9/2.0[1]  2592/500
Matrix Compiler1: 21.98 KB object code size  5.6/3.4/[1.1]
Matrix Compiler2: 17.42 KB object code size  3.1/6.4/[1.0]

