Circuit: * C:\Users\Slash\Documents\EPFL\DC-DC converter\Simulation\LTSpice\current_sensing.asc

Direct Newton iteration failed to find .op point.  (Use ".option noopiter" to skip.)
Starting Gmin stepping
Gmin = 10
Gmin = 1.07374
Gmin = 0.115292
Gmin = 0.0123794
Gmin = 0.00132923
vernier = 0.5
vernier = 0.25
vernier = 0.125
vernier = 0.0625
Gmin = 0.00100083
vernier = 0.03125
vernier = 0.015625
vernier = 0.0078125
vernier = 0.00390625
vernier = 0.00195313
Gmin = 0.00100083
vernier = 0.000976563
vernier = 0.000488281
Gmin = 0
Gmin stepping failed

Starting source stepping with srcstepmethod=0
Source Step = 3.0303%
Source Step = 9.09979%
Source Step = 9.12938%
Source Step = 9.15897%
Source Step = 9.18857%
Source Step = 9.21816%
Source Step = 9.24775%
vernier = 0.00146484
Source Step = 9.28622%
Source Step = 9.33061%
Source Step = 9.375%
Source Step = 9.41939%
Source Step = 9.46378%
vernier = 0.00219727
Source Step = 9.51926%
Source Step = 9.58585%
Source Step = 9.65243%
Source Step = 9.71902%
Source Step = 9.7856%
vernier = 0.0032959
Source Step = 9.8655%
Source Step = 9.96538%
Source Step = 10.0653%
Source Step = 10.1651%
Source Step = 10.265%
vernier = 0.00494385
Source Step = 10.3799%
Source Step = 10.5297%
Source Step = 10.6795%
Source Step = 10.8293%
Source Step = 10.9791%
vernier = 0.00741577
Source Step = 11.1439%
Source Step = 11.3686%
Source Step = 11.5934%
Source Step = 11.8181%
Source Step = 12.0428%
vernier = 0.0111237
Source Step = 12.2787%
Source Step = 12.6158%
Source Step = 12.9529%
Source Step = 13.29%
Source Step = 13.6271%
Source Step = 13.9642%
vernier = 0.0166855
Source Step = 14.4698%
Source Step = 14.9754%
Source Step = 15.481%
Source Step = 15.9866%
Source Step = 16.4923%
vernier = 0.0250282
Source Step = 17.2254%
Source Step = 17.9838%
Source Step = 18.7423%
Source Step = 19.5007%
Source Step = 20.2591%
vernier = 0.0375423
Source Step = 21.3209%
Source Step = 22.4586%
Source Step = 23.5962%
Source Step = 24.7339%
Source Step = 25.8715%
vernier = 0.0563135
Source Step = 27.4073%
Source Step = 29.1138%
Source Step = 30.8203%
Source Step = 32.5268%
Source Step = 34.2332%
vernier = 0.0844703
Source Step = 36.4516%
Source Step = 39.0113%
Source Step = 41.571%
Source Step = 44.1308%
Source Step = 46.6905%
vernier = 0.126705
Source Step = 49.8901%
Source Step = 53.7296%
Source Step = 57.5692%
Source Step = 61.4088%
Source Step = 65.2483%
vernier = 0.190058
Source Step = 69.8558%
Source Step = 75.6151%
Source Step = 81.3745%
Source Step = 87.1338%
Source Step = 91.2013%
vernier = 0.00296966
Source Step = 91.2553%
Source Step = 91.3453%
Source Step = 91.4353%
Source Step = 91.5253%
Source Step = 91.6153%
Source Step = 91.7053%
Source Step = 91.7953%
Source Step = 91.8853%
Source Step = 91.9752%
Source Step = 92.0652%
Source Step = 92.1552%
Starting source stepping with srcstepmethod=1
Source Step = 3.0303%
Source Step = 33.3333%
Source Step = 63.6364%
Source Step = 93.9394%
Source Step = 100%
Source Step = 99.3877%
Source Step = 99.4173%
Source Step = 99.4469%
Source Step = 99.4764%
Source Step = 99.506%
vernier = 0.00146484
Source Step = 99.5386%
Source Step = 99.583%
Source Step = 99.6274%
Source Step = 99.6718%
Source Step = 99.7161%
Source Step = 99.7605%
vernier = 0.00219727
Source Step = 99.8071%
Source Step = 99.8737%
Source Step = 99.9403%
Source stepping succeeded in finding the operating point.


Date: Tue May 12 20:48:39 2020
Total elapsed time: 11.598 seconds.

tnom = 27
temp = 27
method = modified trap
totiter = 20839
traniter = 2084
tranpoints = 1042
accept = 1042
rejected = 0
matrix size = 263
fillins = 428
solver = Normal
Thread vector: 22.9/12.3[4] 8.7/4.6[4] 17.2/8.2[4] 1.4/2.8[1]  2592/500
Matrix Compiler1: 37.24 KB object code size  15.2/7.4/[3.3]
Matrix Compiler2: 29.10 KB object code size  8.0/8.3/[2.7]

